      12
 i =        2, E =      -354.7080968176
 Mo         0.0000056309        1.8322432145        3.7188284557
 Mo         1.6604262320        0.9200489692       11.1565739157
  S         1.6604283064        0.9189454240        5.2440371754
  S        -0.0000012572        1.8333496702       12.6817757502
  S         1.6604299401        0.9189445827        2.1936266473
  S        -0.0000003720        1.8333523214        9.6313679994
 Mo         1.6604273657        4.5845336184        3.7188302334
 Mo         3.3208499381        3.6723404071       11.1565757997
  S         3.3208506611        3.6712333683        5.2440356668
  S         1.6604307401        4.5856400983       12.6817766690
  S         3.3208502110        3.6712359865        2.1936283656
  S         1.6604296645        4.5856390095        9.6313675167
